&share
wrf_core                      = 'ARW',
max_dom                       = 3,
start_date                    = '2004-12-25_00:00:00', '2004-12-25_00:00:00', '2004-12-25_00:00:00', '2004-12-25_00:00:00', '2004-12-25_00:00:00', '2004-12-25_00:00:00', '2004-12-25_00:00:00', '2004-12-25_00:00:00', '2004-12-25_00:00:00', '2004-12-25_00:00:00', '2004-12-25_00:00:00', 
end_date                      = '2006-01-01_00:00:00', '2006-01-01_00:00:00', '2006-01-01_00:00:00', '2006-01-01_00:00:00', '2006-01-01_00:00:00', '2006-01-01_00:00:00', '2006-01-01_00:00:00', '2006-01-01_00:00:00', '2006-01-01_00:00:00', '2006-01-01_00:00:00', '2006-01-01_00:00:00', 
interval_seconds              = 21600,
io_form_geogrid               = 2,
/

&geogrid
parent_id                     = 1, 1, 2, 1, 4, 1, 6, 1, 8, 1, 10, 
parent_grid_ratio             = 1, 3, 6, 3, 6, 3, 6, 3, 6, 3, 6, 
i_parent_start                = 1, 77, 21, 101, 20, 73, 20, 13, 19, 122, 19, 
j_parent_start                = 1, 65, 19, 33, 20, 19, 19, 38, 21, 60, 19, 
e_we                          = 149, 55, 73, 55, 73, 55, 79, 67, 163, 55, 91, 
e_sn                          = 113, 55, 91, 58, 103, 55, 85, 58, 79, 55, 91, 
geog_data_res                 = '10m', '2m', '2m', '2m', '2m', '2m', '2m', '2m', '2m', '2m', '2m', 
dx                            = 36000,
dy                            = 36000,
map_proj                      = 'lambert',
ref_lat                       = 40.0,
ref_lon                       = -97.0,
truelat1                      = 33.0,
truelat2                      = 45.0,
stand_lon                     = -97.0,
ref_x                         = 76.5,
ref_y                         = 58.5,
geog_data_path                = '/home/marshall/tessumcm/WRFinputs/geogV3.4',
/

&ungrib
out_format                    = 'WPS',
prefix                        = 'FILE',
/

&metgrid
fg_name                       = 'FILE',
io_form_metgrid               = 2,
/

